Version 4
SHEET 1 3028 736
WIRE 368 80 368 48
WIRE 496 80 496 48
WIRE 1760 160 1712 160
WIRE 1856 160 1824 160
WIRE 368 192 368 160
WIRE 496 192 496 160
WIRE 496 192 368 192
WIRE 1232 192 944 192
WIRE 496 224 496 192
WIRE 1232 240 1232 192
WIRE 1344 256 1296 256
WIRE 1456 256 1424 256
WIRE 1712 256 1712 160
WIRE 1744 256 1712 256
WIRE 1856 256 1856 160
WIRE 1856 256 1824 256
WIRE 1376 336 1360 336
WIRE 1408 336 1376 336
WIRE 1792 352 1776 352
WIRE 1808 352 1792 352
WIRE 1360 368 1360 336
WIRE 848 384 832 384
WIRE 976 384 848 384
WIRE 1088 384 1040 384
WIRE 1296 384 1296 256
WIRE 1296 384 1168 384
WIRE 1328 384 1296 384
WIRE 1776 384 1776 352
WIRE 1456 400 1456 256
WIRE 1456 400 1392 400
WIRE 1520 400 1456 400
WIRE 1632 400 1600 400
WIRE 1712 400 1712 256
WIRE 1712 400 1632 400
WIRE 1744 400 1712 400
WIRE 2432 400 2352 400
WIRE 1328 416 1312 416
WIRE 1856 416 1856 256
WIRE 1856 416 1808 416
WIRE 1872 416 1856 416
WIRE 1968 416 1952 416
WIRE 2000 416 1968 416
WIRE 2128 416 2064 416
WIRE 2208 416 2128 416
WIRE 2352 416 2352 400
WIRE 2352 416 2208 416
WIRE 1744 432 1712 432
WIRE 1232 464 1232 320
WIRE 1232 464 1008 464
WIRE 1360 464 1360 432
WIRE 1360 464 1296 464
WIRE 2352 464 2336 464
WIRE 1232 480 1232 464
WIRE 1760 480 1744 480
WIRE 1776 480 1776 448
WIRE 1776 480 1760 480
WIRE 2128 480 2128 416
WIRE 2208 480 2208 416
WIRE 2432 496 2432 480
WIRE 2608 496 2432 496
WIRE 2624 496 2608 496
WIRE 2432 512 2432 496
WIRE 1008 576 1008 464
WIRE 1232 576 1232 560
WIRE 1312 576 1312 416
WIRE 1312 576 1232 576
WIRE 1376 576 1312 576
WIRE 1712 576 1712 432
WIRE 1712 576 1376 576
WIRE 1376 592 1376 576
WIRE 2352 592 2352 464
WIRE 2432 592 2352 592
WIRE 2608 592 2432 592
WIRE 2624 592 2608 592
WIRE 832 672 832 464
WIRE 1008 672 1008 640
WIRE 1008 672 832 672
WIRE 1232 672 1232 656
WIRE 1232 672 1008 672
WIRE 1376 672 1376 656
WIRE 1376 672 1232 672
WIRE 2128 672 2128 544
WIRE 2128 672 1376 672
WIRE 2208 672 2208 544
WIRE 2208 672 2128 672
WIRE 2336 672 2336 464
WIRE 2336 672 2208 672
WIRE 1232 688 1232 672
FLAG 496 224 0
FLAG 368 48 VDD
FLAG 496 48 VSS
FLAG 1376 336 VDD
FLAG 1296 464 VSS
FLAG 944 192 VDD
FLAG 1232 688 0
FLAG 1792 352 VDD
FLAG 1760 480 VSS
FLAG 848 384 input
FLAG 1632 400 stage_1
FLAG 1968 416 stage_2
FLAG 2608 496 out+
FLAG 2608 592 out-
SYMBOL voltage 368 64 R0
WINDOW 123 0 0 Left 2
WINDOW 39 0 0 Left 2
WINDOW 3 44 56 Left 2
SYMATTR Value 9
SYMATTR InstName Vplus
SYMBOL voltage 496 64 R0
WINDOW 123 0 0 Left 2
WINDOW 39 0 0 Left 2
WINDOW 3 44 56 Left 2
SYMATTR Value -9
SYMATTR InstName Vminus
SYMBOL opamp2 1360 336 R0
SYMATTR InstName U1
SYMATTR Value lm741/ns
SYMBOL Res 1184 368 R90
WINDOW 0 0 56 VBottom 2
WINDOW 3 32 56 VTop 2
SYMATTR InstName R1
SYMATTR Value 47k
SYMBOL Res 1248 576 R180
WINDOW 0 36 76 Left 2
WINDOW 3 36 40 Left 2
SYMATTR InstName R2
SYMATTR Value 10k
SYMBOL Res 1248 672 R180
WINDOW 0 36 76 Left 2
WINDOW 3 36 40 Left 2
SYMATTR InstName R3
SYMATTR Value 10k
SYMBOL Cap 1040 368 R90
WINDOW 0 0 32 VBottom 2
WINDOW 3 32 32 VTop 2
SYMATTR InstName C1
SYMATTR Value .22µ
SYMBOL Voltage 832 368 R0
SYMATTR InstName input
SYMATTR Value SINE(0 1 1)
SYMBOL Res 1440 240 R90
WINDOW 0 0 56 VBottom 2
WINDOW 3 32 56 VTop 2
SYMATTR InstName VR1
SYMATTR Value 500k
SYMBOL polcap 992 576 R0
SYMATTR InstName C4
SYMATTR Value 100µ
SYMBOL Res 1216 224 R0
SYMATTR InstName SW
SYMATTR Value 0
SYMBOL Res 1616 384 R90
WINDOW 0 0 56 VBottom 2
WINDOW 3 32 56 VTop 2
SYMATTR InstName R4
SYMATTR Value 4.7k
SYMBOL opamp2 1776 352 R0
SYMATTR InstName U2
SYMATTR Value lm741/ns
SYMBOL polcap 1360 592 R0
SYMATTR InstName C5
SYMATTR Value 10µ
SYMBOL Res 1840 240 R90
WINDOW 0 0 56 VBottom 2
WINDOW 3 32 56 VTop 2
SYMATTR InstName R5
SYMATTR Value 33k
SYMBOL Cap 1824 144 R90
WINDOW 0 0 32 VBottom 2
WINDOW 3 32 32 VTop 2
SYMATTR InstName C2
SYMATTR Value 22p
SYMBOL Res 1968 400 R90
WINDOW 0 0 56 VBottom 2
WINDOW 3 32 56 VTop 2
SYMATTR InstName R6
SYMATTR Value 10k
SYMBOL Cap 2064 400 R90
WINDOW 0 0 32 VBottom 2
WINDOW 3 32 32 VTop 2
SYMATTR InstName C3
SYMATTR Value .22µ
SYMBOL Diode 2112 480 R0
SYMATTR InstName D1
SYMBOL Diode 2224 544 R180
WINDOW 0 24 64 Left 2
WINDOW 3 24 0 Left 2
SYMATTR InstName D2
SYMBOL res 2416 384 R0
SYMATTR InstName VR2
SYMATTR Value 250k
SYMBOL Res 2416 496 R0
SYMATTR InstName R8
SYMATTR Value 500k
TEXT 336 496 Left 2 !.include lm741.MOD
TEXT 1016 248 Left 2 ;switch goes here >\n0 ohms is a short \n can be cut
TEXT 352 472 Left 2 !.tran 0 30 0 1
TEXT 344 432 Left 2 ;Put Commands Here
TEXT 360 -24 Left 2 ;Battery Supply
TEXT 1080 128 Left 2 ;First stage Amplification (x4)\nWorks 12/5
TEXT 1688 80 Left 2 ;Second Stage Amplification (x4)\nWorks 12/5
TEXT 2096 392 Left 2 ;heavy clipping
TEXT 2320 336 Left 2 ;Volume Control \nShould be a pot
TEXT 816 -16 Left 6 ;FUZZ BOX SCHEMATIC
RECTANGLE Normal 292 -8 600 300 2
RECTANGLE Normal 880 168 1508 732 2
RECTANGLE Normal 1672 112 2020 616 2
RECTANGLE Normal 2092 400 2244 600 2
RECTANGLE Normal 2316 376 2508 696 2
RECTANGLE Normal 312 412 716 588 2
